<?xml version="1.0" encoding="UTF-8"?>
<!DOCTYPE transitSchedule SYSTEM "http://www.matsim.org/files/dtd/transitSchedule_v1.dtd">

<transitSchedule>
	<transitStops>
	
	

<stopFacility id="r46_1" x="3338794" y="3666139" linkRefId="r46_1_to_r46_2" />
<stopFacility id="r46_2" x="3338695" y="3666150" linkRefId="r46_2_to_r46_3" />
<stopFacility id="r46_3" x="3338600" y="3666182" linkRefId="r46_3_to_r46_4" />
<stopFacility id="r46_4" x="3338519" y="3666239" linkRefId="r46_4_to_r46_5" />
<stopFacility id="r46_5" x="3338034" y="3666744" linkRefId="r46_5_to_r46_6" />
<stopFacility id="r46_6" x="3337967" y="3666818" linkRefId="r46_6_to_r46_7" />
<stopFacility id="r46_7" x="3337890" y="3666880" linkRefId="r46_7_to_r46_8" />
<stopFacility id="r46_8" x="3337811" y="3666841" linkRefId="r46_8_to_r46_9" />
<stopFacility id="r46_9" x="3337717" y="3666810" linkRefId="r46_9_to_r46_10" />
<stopFacility id="r46_10" x="3337630" y="3666761" linkRefId="r46_10_to_r46_11" />
<stopFacility id="r46_11" x="3337566" y="3666685" linkRefId="r46_11_to_r46_12" />
<stopFacility id="r46_12" x="3336948" y="3665926" linkRefId="r46_12_to_r46_13" />
<stopFacility id="r46_13" x="3336859" y="3665881" linkRefId="r46_13_to_r46_14" />
<stopFacility id="r46_14" x="3336760" y="3665870" linkRefId="r46_14_to_r46_15" />
<stopFacility id="r46_15" x="3336666" y="3665839" linkRefId="r46_15_to_r46_16" />
<stopFacility id="r46_16" x="3336593" y="3665771" linkRefId="r46_16_to_r46_17" />
<stopFacility id="r46_17" x="3336539" y="3665687" linkRefId="r46_17_to_r46_18" />
<stopFacility id="r46_18" x="3336339" y="3665466" linkRefId="r46_18_to_r46_19" />
<stopFacility id="r46_19" x="3336156" y="3665231" linkRefId="r46_19_to_r46_20" />
<stopFacility id="r46_20" x="3336096" y="3665151" linkRefId="r46_20_to_r46_21" />
<stopFacility id="r46_21" x="3336028" y="3665079" linkRefId="r46_21_to_r46_22" />
<stopFacility id="r46_22" x="3335958" y="3665007" linkRefId="r46_22_to_r46_23" />
<stopFacility id="r46_23" x="3335878" y="3664948" linkRefId="r46_23_to_r46_24" />
<stopFacility id="r46_24" x="3335819" y="3664867" linkRefId="r46_24_to_r46_25" />
<stopFacility id="r46_25" x="3335770" y="3664780" linkRefId="r46_25_to_r46_26" />
<stopFacility id="r46_26" x="3335722" y="3664693" linkRefId="r46_26_to_r46_27" />
<stopFacility id="r46_27" x="3335669" y="3664608" linkRefId="r46_27_to_r46_28" />
<stopFacility id="r46_28" x="3335594" y="3664542" linkRefId="r46_28_to_r46_29" />
<stopFacility id="r46_29" x="3335520" y="3664476" linkRefId="r46_29_to_r46_30" />
<stopFacility id="r46_30" x="3335451" y="3664403" linkRefId="r46_30_to_r46_31" />
<stopFacility id="r46_31" x="3335382" y="3664331" linkRefId="r46_31_to_r46_32" />
<stopFacility id="r46_32" x="3335295" y="3664282" linkRefId="r46_32_to_r46_33" />
<stopFacility id="r46_33" x="3335210" y="3664229" linkRefId="r46_33_to_r46_34" />
<stopFacility id="r46_34" x="3335145" y="3664154" linkRefId="r46_34_to_r46_35" />
<stopFacility id="r46_35" x="3335077" y="3664082" linkRefId="r46_35_to_r46_36" />
<stopFacility id="r46_36" x="3334982" y="3664055" linkRefId="r46_36_to_r46_37" />
<stopFacility id="r46_37" x="3334891" y="3664090" linkRefId="r46_37_to_r46_38" />
<stopFacility id="r46_38" x="3334798" y="3664103" linkRefId="r46_38_to_r46_39" />
<stopFacility id="r46_39" x="3334720" y="3664040" linkRefId="r46_39_to_r46_40" />
<stopFacility id="r46_40" x="3334643" y="3663976" linkRefId="r46_40_to_r46_41" />
<stopFacility id="r46_41" x="3334564" y="3663915" linkRefId="r46_41_to_r46_42" />
<stopFacility id="r46_42" x="3334486" y="3663853" linkRefId="r46_42_to_r46_43" />
<stopFacility id="r46_43" x="3334436" y="3663767" linkRefId="r46_43_to_r46_44" />
<stopFacility id="r46_44" x="3334396" y="3663676" linkRefId="r46_44_to_r46_45" />
<stopFacility id="r46_45" x="3334329" y="3663602" linkRefId="r46_45_to_r46_46" />
<stopFacility id="r46_46" x="3334242" y="3663554" linkRefId="r46_46_to_r46_47" />
<stopFacility id="r46_47" x="3334144" y="3663536" linkRefId="r46_47_to_r46_48" />
<stopFacility id="r46_48" x="3334058" y="3663490" linkRefId="r46_48_to_r46_49" />
<stopFacility id="r46_49" x="3333983" y="3663424" linkRefId="r46_49_to_r46_50" />
<stopFacility id="r46_50" x="3333908" y="3663358" linkRefId="r46_50_to_r46_51" />
<stopFacility id="r46_51" x="3333832" y="3663293" linkRefId="r46_51_to_r46_52" />
<stopFacility id="r46_52" x="3333757" y="3663228" linkRefId="r46_52_to_r46_53" />
<stopFacility id="r46_53" x="3333688" y="3663155" linkRefId="r46_53_to_r46_54" />
<stopFacility id="r46_54" x="3333624" y="3663079" linkRefId="r46_54_to_r46_55" />
<stopFacility id="r46_55" x="3333563" y="3662999" linkRefId="r46_55_to_r46_56" />
<stopFacility id="r46_56" x="3333505" y="3662918" linkRefId="r46_56_to_r46_57" />
<stopFacility id="r46_57" x="3333440" y="3662842" linkRefId="r46_57_to_r46_58" />
<stopFacility id="r46_58" x="3333376" y="3662765" linkRefId="r46_58_to_r46_59" />
<stopFacility id="r46_59" x="3333311" y="3662689" linkRefId="r46_59_to_r46_60" />
<stopFacility id="r46_60" x="3333246" y="3662613" linkRefId="r46_60_to_r46_61" />
<stopFacility id="r46_61" x="3333180" y="3662537" linkRefId="r46_61_to_r46_62" />
<stopFacility id="r46_62" x="3333115" y="3662462" linkRefId="r46_62_to_r46_63" />
<stopFacility id="r46_63" x="3333048" y="3662388" linkRefId="r46_63_to_r46_64" />
<stopFacility id="r46_64" x="3332953" y="3662364" linkRefId="r46_64_to_r46_65" />
<stopFacility id="r46_65" x="3332854" y="3662354" linkRefId="r46_65_to_r46_66" />
<stopFacility id="r46_66" x="3332761" y="3662315" linkRefId="r46_66_to_r46_67" />
<stopFacility id="r46_67" x="3332675" y="3662265" linkRefId="r46_67_to_r46_68" />
<stopFacility id="r46_68" x="3332599" y="3662200" linkRefId="r46_68_to_r46_69" />
<stopFacility id="r46_69" x="3332525" y="3662132" linkRefId="r46_69_to_r46_70" />
<stopFacility id="r46_70" x="3332458" y="3662059" linkRefId="r46_70_to_r46_71" />
<stopFacility id="r46_71" x="3332389" y="3661987" linkRefId="r46_71_to_r46_72" />
<stopFacility id="r46_72" x="3332317" y="3661917" linkRefId="r46_72_to_r46_73" />
<stopFacility id="r46_73" x="3332246" y="3661847" linkRefId="r46_73_to_r46_74" />
<stopFacility id="r46_74" x="3332162" y="3661801" linkRefId="r46_74_to_r46_75" />
<stopFacility id="r46_75" x="3332112" y="3661720" linkRefId="r46_75_to_r46_76" />
<stopFacility id="r46_76" x="3332037" y="3661654" linkRefId="r46_76_to_r46_77" />
<stopFacility id="r46_77" x="3331962" y="3661588" linkRefId="r46_77_to_r46_78" />
<stopFacility id="r46_78" x="3331887" y="3661521" linkRefId="r46_78_to_r46_79" />
<stopFacility id="r46_79" x="3331812" y="3661455" linkRefId="r46_79_to_r46_80" />
<stopFacility id="r46_80" x="3331737" y="3661390" linkRefId="r46_80_to_r46_81" />
<stopFacility id="r46_81" x="3331656" y="3661332" linkRefId="r46_81_to_r46_82" />
<stopFacility id="r46_82" x="3331570" y="3661280" linkRefId="r46_82_to_r46_83" />
<stopFacility id="r46_83" x="3331490" y="3661220" linkRefId="r46_83_to_r46_84" />
<stopFacility id="r46_84" x="3331413" y="3661156" linkRefId="r46_84_to_r46_85" />
<stopFacility id="r46_85" x="3331336" y="3661093" linkRefId="r46_85_to_r46_86" />
<stopFacility id="r46_86" x="3331258" y="3661030" linkRefId="r46_86_to_r46_87" />
<stopFacility id="r46_87" x="3331178" y="3660970" linkRefId="r46_87_to_r46_88" />
<stopFacility id="r46_88" x="3331093" y="3660918" linkRefId="r46_88_to_r46_89" />
<stopFacility id="r46_89" x="3331009" y="3660865" linkRefId="r46_89_to_r46_90" />
<stopFacility id="r46_90" x="3330936" y="3660796" linkRefId="r46_90_to_r46_91" />
<stopFacility id="r46_91" x="3330854" y="3660740" linkRefId="r46_91_to_r46_92" />
<stopFacility id="r46_92" x="3330768" y="3660688" linkRefId="r46_92_to_r46_93" />
<stopFacility id="r46_93" x="3330680" y="3660641" linkRefId="r46_93_to_r46_94" />
<stopFacility id="r46_94" x="3330590" y="3660597" linkRefId="r46_94_to_r46_95" />
<stopFacility id="r46_95" x="3330513" y="3660535" linkRefId="r46_95_to_r46_96" />
<stopFacility id="r46_96" x="3330442" y="3660463" linkRefId="r46_96_to_r46_97" />
<stopFacility id="r46_97" x="3330370" y="3660394" linkRefId="r46_97_to_r46_98" />
<stopFacility id="r46_98" x="3330294" y="3660329" linkRefId="r46_98_to_r46_99" />
<stopFacility id="r46_99" x="3330203" y="3660289" linkRefId="r46_99_to_r46_100" />
<stopFacility id="r46_100" x="3330109" y="3660256" linkRefId="r46_100_to_r46_101" />
<stopFacility id="r46_101" x="3330014" y="3660224" linkRefId="r46_101_to_r46_102" />
<stopFacility id="r46_102" x="3329921" y="3660188" linkRefId="r46_102_to_r46_103" />
<stopFacility id="r46_103" x="3329835" y="3660137" linkRefId="r46_103_to_r46_104" />
<stopFacility id="r46_104" x="3329747" y="3660090" linkRefId="r46_104_to_r46_105" />
<stopFacility id="r46_105" x="3329649" y="3660072" linkRefId="r46_105_to_r46_106" />
<stopFacility id="r46_106" x="3329601" y="3660032" linkRefId="r46_106_to_r46_107" />
<stopFacility id="r46_107" x="3329699" y="3660046" linkRefId="r46_107_to_r46_108" />
<stopFacility id="r46_108" x="3329795" y="3660066" linkRefId="r46_108_to_r46_109" />
<stopFacility id="r46_109" x="3329840" y="3659979" linkRefId="r46_109_to_r46_110" />
<stopFacility id="r46_110" x="3329876" y="3659886" linkRefId="r46_110_to_r46_111" />
<stopFacility id="r46_111" x="3329913" y="3659793" linkRefId="r46_111_to_r46_112" />
<stopFacility id="r46_112" x="3329951" y="3659700" linkRefId="r46_112_to_r46_113" />
<stopFacility id="r46_113" x="3329987" y="3659607" linkRefId="r46_113_to_r46_114" />
<stopFacility id="r46_114" x="3330024" y="3659514" linkRefId="r46_114_to_r46_115" />
<stopFacility id="r46_115" x="3330060" y="3659421" linkRefId="r46_115_to_r46_116" />
<stopFacility id="r46_116" x="3330088" y="3659326" linkRefId="r46_116_to_r46_117" />
<stopFacility id="r46_117" x="3330124" y="3659232" linkRefId="r46_117_to_r46_118" />
<stopFacility id="r46_118" x="3330159" y="3659139" linkRefId="r46_118_to_r46_119" />
<stopFacility id="r46_119" x="3330194" y="3659045" linkRefId="r46_119_to_r46_120" />
<stopFacility id="r46_120" x="3330147" y="3658967" linkRefId="r46_120_to_r46_121" />
<stopFacility id="r46_121" x="3330061" y="3658918" linkRefId="r46_121_to_r46_122" />
<stopFacility id="r46_122" x="3330099" y="3658888" linkRefId="r46_122_to_r46_123" />
<stopFacility id="r46_123" x="3330186" y="3658937" linkRefId="r46_123_to_r46_124" />
<stopFacility id="r46_124" x="3330243" y="3658873" linkRefId="r46_124_to_r46_125" />
<stopFacility id="r46_125" x="3330262" y="3658775" linkRefId="r46_125_to_r46_126" />
<stopFacility id="r46_126" x="3330259" y="3658675" linkRefId="r46_126_to_r46_127" />
<stopFacility id="r46_127" x="3330246" y="3658576" linkRefId="r46_127_to_r46_128" />
<stopFacility id="r46_128" x="3330206" y="3658484" linkRefId="r46_128_to_r46_129" />
<stopFacility id="r46_129" x="3330176" y="3658389" linkRefId="r46_129_to_r46_130" />
<stopFacility id="r46_130" x="3330092" y="3658345" linkRefId="r46_130_to_r46_131" />
<stopFacility id="r46_131" x="3329999" y="3658309" linkRefId="r46_131_to_r46_132" />
<stopFacility id="r46_132" x="3329905" y="3658274" linkRefId="r46_132_to_r46_133" />
<stopFacility id="r46_133" x="3329812" y="3658238" linkRefId="r46_133_to_r46_134" />
<stopFacility id="r46_134" x="3329719" y="3658202" linkRefId="r46_134_to_r46_135" />
<stopFacility id="r46_135" x="3329626" y="3658164" linkRefId="r46_135_to_r46_136" />
<stopFacility id="r46_136" x="3329534" y="3658124" linkRefId="r46_136_to_r46_137" />
<stopFacility id="r46_137" x="3329443" y="3658085" linkRefId="r46_137_to_r46_138" />
<stopFacility id="r46_138" x="3329351" y="3658045" linkRefId="r46_138_to_r46_139" />
<stopFacility id="r46_139" x="3329259" y="3658005" linkRefId="r46_139_to_r46_140" />
<stopFacility id="r46_140" x="3329167" y="3657965" linkRefId="r46_140_to_r46_141" />
<stopFacility id="r46_141" x="3329076" y="3657926" linkRefId="r46_141_to_r46_142" />
<stopFacility id="r46_142" x="3328984" y="3657886" linkRefId="r46_142_to_r46_143" />
<stopFacility id="r46_143" x="3328899" y="3657879" linkRefId="r46_143_to_r46_144" />
<stopFacility id="r46_144" x="3328814" y="3657908" linkRefId="r46_144_to_r46_145" />
<stopFacility id="r46_145" x="3328794" y="3657819" linkRefId="r46_145_to_r46_146" />
<stopFacility id="r46_146" x="3328807" y="3657788" linkRefId="r46_145_to_r46_146" />

<stopFacility id="r47_1" x="3338871" y="3666102" linkRefId="r47_1_to_r47_2" />
<stopFacility id="r47_2" x="3338791" y="3666043" linkRefId="r47_2_to_r47_3" />
<stopFacility id="r47_3" x="3338708" y="3665986" linkRefId="r47_3_to_r47_4" />
<stopFacility id="r47_4" x="3338626" y="3665929" linkRefId="r47_4_to_r47_5" />
<stopFacility id="r47_5" x="3338545" y="3665871" linkRefId="r47_5_to_r47_6" />
<stopFacility id="r47_6" x="3338465" y="3665811" linkRefId="r47_6_to_r47_7" />
<stopFacility id="r47_7" x="3338383" y="3665755" linkRefId="r47_7_to_r47_8" />
<stopFacility id="r47_8" x="3338300" y="3665698" linkRefId="r47_8_to_r47_9" />
<stopFacility id="r47_9" x="3338218" y="3665642" linkRefId="r47_9_to_r47_10" />
<stopFacility id="r47_10" x="3338136" y="3665584" linkRefId="r47_10_to_r47_11" />
<stopFacility id="r47_11" x="3338054" y="3665527" linkRefId="r47_11_to_r47_12" />
<stopFacility id="r47_12" x="3337971" y="3665470" linkRefId="r47_12_to_r47_13" />
<stopFacility id="r47_13" x="3337887" y="3665417" linkRefId="r47_13_to_r47_14" />
<stopFacility id="r47_14" x="3337803" y="3665362" linkRefId="r47_14_to_r47_15" />
<stopFacility id="r47_15" x="3337720" y="3665306" linkRefId="r47_15_to_r47_16" />
<stopFacility id="r47_16" x="3337638" y="3665249" linkRefId="r47_16_to_r47_17" />
<stopFacility id="r47_17" x="3337556" y="3665193" linkRefId="r47_17_to_r47_18" />
<stopFacility id="r47_18" x="3337473" y="3665137" linkRefId="r47_18_to_r47_19" />
<stopFacility id="r47_19" x="3337390" y="3665081" linkRefId="r47_19_to_r47_20" />
<stopFacility id="r47_20" x="3337312" y="3665018" linkRefId="r47_20_to_r47_21" />
<stopFacility id="r47_21" x="3337233" y="3664957" linkRefId="r47_21_to_r47_22" />
<stopFacility id="r47_22" x="3337291" y="3664892" linkRefId="r47_22_to_r47_23" />
<stopFacility id="r47_23" x="3337366" y="3664826" linkRefId="r47_23_to_r47_24" />
<stopFacility id="r47_24" x="3337443" y="3664762" linkRefId="r47_24_to_r47_25" />
<stopFacility id="r47_25" x="3337516" y="3664694" linkRefId="r47_25_to_r47_26" />
<stopFacility id="r47_26" x="3337586" y="3664623" linkRefId="r47_26_to_r47_27" />
<stopFacility id="r47_27" x="3337653" y="3664548" linkRefId="r47_27_to_r47_28" />
<stopFacility id="r47_28" x="3337718" y="3664473" linkRefId="r47_28_to_r47_29" />
<stopFacility id="r47_29" x="3337779" y="3664394" linkRefId="r47_29_to_r47_30" />
<stopFacility id="r47_30" x="3337798" y="3664320" linkRefId="r47_30_to_r47_31" />
<stopFacility id="r47_31" x="3337734" y="3664243" linkRefId="r47_31_to_r47_32" />
<stopFacility id="r47_32" x="3337684" y="3664203" linkRefId="r47_32_to_r47_33" />
<stopFacility id="r47_33" x="3337750" y="3664278" linkRefId="r47_33_to_r47_34" />
<stopFacility id="r47_34" x="3337815" y="3664354" linkRefId="r47_34_to_r47_35" />
<stopFacility id="r47_35" x="3337882" y="3664429" linkRefId="r47_35_to_r47_36" />
<stopFacility id="r47_36" x="3337963" y="3664487" linkRefId="r47_36_to_r47_37" />
<stopFacility id="r47_37" x="3338049" y="3664537" linkRefId="r47_37_to_r47_38" />
<stopFacility id="r47_38" x="3338138" y="3664583" linkRefId="r47_38_to_r47_39" />
<stopFacility id="r47_39" x="3338233" y="3664615" linkRefId="r47_39_to_r47_40" />
<stopFacility id="r47_40" x="3338327" y="3664649" linkRefId="r47_40_to_r47_41" />
<stopFacility id="r47_41" x="3338418" y="3664689" linkRefId="r47_41_to_r47_42" />
<stopFacility id="r47_42" x="3338509" y="3664730" linkRefId="r47_42_to_r47_43" />
<stopFacility id="r47_43" x="3338601" y="3664770" linkRefId="r47_43_to_r47_44" />
<stopFacility id="r47_44" x="3338699" y="3664791" linkRefId="r47_44_to_r47_45" />
<stopFacility id="r47_45" x="3338761" y="3664749" linkRefId="r47_45_to_r47_46" />
<stopFacility id="r47_46" x="3338744" y="3664651" linkRefId="r47_46_to_r47_47" />
<stopFacility id="r47_47" x="3338727" y="3664552" linkRefId="r47_47_to_r47_48" />
<stopFacility id="r47_48" x="3338719" y="3664453" linkRefId="r47_48_to_r47_49" />
<stopFacility id="r47_49" x="3338725" y="3664353" linkRefId="r47_49_to_r47_50" />
<stopFacility id="r47_50" x="3338732" y="3664253" linkRefId="r47_50_to_r47_51" />
<stopFacility id="r47_51" x="3338733" y="3664153" linkRefId="r47_51_to_r47_52" />
<stopFacility id="r47_52" x="3338705" y="3664062" linkRefId="r47_52_to_r47_53" />
<stopFacility id="r47_53" x="3338753" y="3663990" linkRefId="r47_53_to_r47_54" />
<stopFacility id="r47_54" x="3338759" y="3663890" linkRefId="r47_54_to_r47_55" />
<stopFacility id="r47_55" x="3338765" y="3663790" linkRefId="r47_55_to_r47_56" />
<stopFacility id="r47_56" x="3338771" y="3663690" linkRefId="r47_56_to_r47_57" />
<stopFacility id="r47_57" x="3338776" y="3663590" linkRefId="r47_57_to_r47_58" />
<stopFacility id="r47_58" x="3338783" y="3663491" linkRefId="r47_58_to_r47_59" />
<stopFacility id="r47_59" x="3338789" y="3663391" linkRefId="r47_59_to_r47_60" />
<stopFacility id="r47_60" x="3338795" y="3663291" linkRefId="r47_60_to_r47_61" />
<stopFacility id="r47_61" x="3338802" y="3663191" linkRefId="r47_61_to_r47_62" />
<stopFacility id="r47_62" x="3338808" y="3663091" linkRefId="r47_62_to_r47_63" />
<stopFacility id="r47_63" x="3338815" y="3662992" linkRefId="r47_63_to_r47_64" />
<stopFacility id="r47_64" x="3338820" y="3662892" linkRefId="r47_64_to_r47_65" />
<stopFacility id="r47_65" x="3338826" y="3662792" linkRefId="r47_65_to_r47_66" />
<stopFacility id="r47_66" x="3338831" y="3662692" linkRefId="r47_66_to_r47_67" />
<stopFacility id="r47_67" x="3338837" y="3662592" linkRefId="r47_67_to_r47_68" />
<stopFacility id="r47_68" x="3338843" y="3662492" linkRefId="r47_68_to_r47_69" />
<stopFacility id="r47_69" x="3338848" y="3662393" linkRefId="r47_69_to_r47_70" />
<stopFacility id="r47_70" x="3338854" y="3662293" linkRefId="r47_70_to_r47_71" />
<stopFacility id="r47_71" x="3338860" y="3662193" linkRefId="r47_71_to_r47_72" />
<stopFacility id="r47_72" x="3338866" y="3662093" linkRefId="r47_72_to_r47_73" />
<stopFacility id="r47_73" x="3338871" y="3661993" linkRefId="r47_73_to_r47_74" />
<stopFacility id="r47_74" x="3338877" y="3661893" linkRefId="r47_74_to_r47_75" />
<stopFacility id="r47_75" x="3338864" y="3661796" linkRefId="r47_75_to_r47_76" />
<stopFacility id="r47_76" x="3338827" y="3661703" linkRefId="r47_76_to_r47_77" />
<stopFacility id="r47_77" x="3338776" y="3661618" linkRefId="r47_77_to_r47_78" />
<stopFacility id="r47_78" x="3338734" y="3661527" linkRefId="r47_78_to_r47_79" />
<stopFacility id="r47_79" x="3338697" y="3661434" linkRefId="r47_79_to_r47_80" />
<stopFacility id="r47_80" x="3338671" y="3661403" linkRefId="r47_79_to_r47_80" />

<stopFacility id="r48_1" x="3338871" y="3666102" linkRefId="r48_1_to_r48_2" />
<stopFacility id="r48_2" x="3338791" y="3666043" linkRefId="r48_2_to_r48_3" />
<stopFacility id="r48_3" x="3338708" y="3665986" linkRefId="r48_3_to_r48_4" />
<stopFacility id="r48_4" x="3338626" y="3665929" linkRefId="r48_4_to_r48_5" />
<stopFacility id="r48_5" x="3338545" y="3665871" linkRefId="r48_5_to_r48_6" />
<stopFacility id="r48_6" x="3338465" y="3665811" linkRefId="r48_6_to_r48_7" />
<stopFacility id="r48_7" x="3338383" y="3665755" linkRefId="r48_7_to_r48_8" />
<stopFacility id="r48_8" x="3338300" y="3665698" linkRefId="r48_8_to_r48_9" />
<stopFacility id="r48_9" x="3338218" y="3665642" linkRefId="r48_9_to_r48_10" />
<stopFacility id="r48_10" x="3338136" y="3665584" linkRefId="r48_10_to_r48_11" />
<stopFacility id="r48_11" x="3338054" y="3665527" linkRefId="r48_11_to_r48_12" />
<stopFacility id="r48_12" x="3337971" y="3665470" linkRefId="r48_12_to_r48_13" />
<stopFacility id="r48_13" x="3337887" y="3665417" linkRefId="r48_13_to_r48_14" />
<stopFacility id="r48_14" x="3337803" y="3665362" linkRefId="r48_14_to_r48_15" />
<stopFacility id="r48_15" x="3337720" y="3665306" linkRefId="r48_15_to_r48_16" />
<stopFacility id="r48_16" x="3337638" y="3665249" linkRefId="r48_16_to_r48_17" />
<stopFacility id="r48_17" x="3337556" y="3665193" linkRefId="r48_17_to_r48_18" />
<stopFacility id="r48_18" x="3337473" y="3665137" linkRefId="r48_18_to_r48_19" />
<stopFacility id="r48_19" x="3337390" y="3665081" linkRefId="r48_19_to_r48_20" />
<stopFacility id="r48_20" x="3337312" y="3665018" linkRefId="r48_20_to_r48_21" />
<stopFacility id="r48_21" x="3337233" y="3664957" linkRefId="r48_21_to_r48_22" />
<stopFacility id="r48_22" x="3337291" y="3664892" linkRefId="r48_22_to_r48_23" />
<stopFacility id="r48_23" x="3337366" y="3664826" linkRefId="r48_23_to_r48_24" />
<stopFacility id="r48_24" x="3337443" y="3664762" linkRefId="r48_24_to_r48_25" />
<stopFacility id="r48_25" x="3337516" y="3664694" linkRefId="r48_25_to_r48_26" />
<stopFacility id="r48_26" x="3337586" y="3664623" linkRefId="r48_26_to_r48_27" />
<stopFacility id="r48_27" x="3337653" y="3664548" linkRefId="r48_27_to_r48_28" />
<stopFacility id="r48_28" x="3337718" y="3664473" linkRefId="r48_28_to_r48_29" />
<stopFacility id="r48_29" x="3337787" y="3664402" linkRefId="r48_29_to_r48_30" />
<stopFacility id="r48_30" x="3337858" y="3664357" linkRefId="r48_30_to_r48_31" />
<stopFacility id="r48_31" x="3337931" y="3664425" linkRefId="r48_31_to_r48_32" />
<stopFacility id="r48_32" x="3337960" y="3664447" linkRefId="r48_31_to_r48_32" />

<stopFacility id="r49_1" x="3333152" y="3661321" linkRefId="r49_1_to_r49_2" />
<stopFacility id="r49_2" x="3333094" y="3661273" linkRefId="r49_2_to_r49_3" />
<stopFacility id="r49_3" x="3333026" y="3661200" linkRefId="r49_3_to_r49_4" />
<stopFacility id="r49_4" x="3332956" y="3661128" linkRefId="r49_4_to_r49_5" />
<stopFacility id="r49_5" x="3332887" y="3661056" linkRefId="r49_5_to_r49_6" />
<stopFacility id="r49_6" x="3332817" y="3660984" linkRefId="r49_6_to_r49_7" />
<stopFacility id="r49_7" x="3332748" y="3660912" linkRefId="r49_7_to_r49_8" />
<stopFacility id="r49_8" x="3332681" y="3660838" linkRefId="r49_8_to_r49_9" />
<stopFacility id="r49_9" x="3332614" y="3660763" linkRefId="r49_9_to_r49_10" />
<stopFacility id="r49_10" x="3332547" y="3660689" linkRefId="r49_10_to_r49_11" />
<stopFacility id="r49_11" x="3332480" y="3660615" linkRefId="r49_11_to_r49_12" />
<stopFacility id="r49_12" x="3332413" y="3660541" linkRefId="r49_12_to_r49_13" />
<stopFacility id="r49_13" x="3332346" y="3660467" linkRefId="r49_13_to_r49_14" />
<stopFacility id="r49_14" x="3332279" y="3660392" linkRefId="r49_14_to_r49_15" />
<stopFacility id="r49_15" x="3332212" y="3660318" linkRefId="r49_15_to_r49_16" />
<stopFacility id="r49_16" x="3332145" y="3660244" linkRefId="r49_16_to_r49_17" />
<stopFacility id="r49_17" x="3332079" y="3660169" linkRefId="r49_17_to_r49_18" />
<stopFacility id="r49_18" x="3332011" y="3660095" linkRefId="r49_18_to_r49_19" />
<stopFacility id="r49_19" x="3331944" y="3660021" linkRefId="r49_19_to_r49_20" />
<stopFacility id="r49_20" x="3331877" y="3659947" linkRefId="r49_20_to_r49_21" />
<stopFacility id="r49_21" x="3331809" y="3659873" linkRefId="r49_21_to_r49_22" />
<stopFacility id="r49_22" x="3331743" y="3659800" linkRefId="r49_22_to_r49_23" />
<stopFacility id="r49_23" x="3331667" y="3659736" linkRefId="r49_23_to_r49_24" />
<stopFacility id="r49_24" x="3331586" y="3659677" linkRefId="r49_24_to_r49_25" />
<stopFacility id="r49_25" x="3331505" y="3659619" linkRefId="r49_25_to_r49_26" />
<stopFacility id="r49_26" x="3331422" y="3659563" linkRefId="r49_26_to_r49_27" />
<stopFacility id="r49_27" x="3331335" y="3659515" linkRefId="r49_27_to_r49_28" />
<stopFacility id="r49_28" x="3331245" y="3659471" linkRefId="r49_28_to_r49_29" />
<stopFacility id="r49_29" x="3331155" y="3659428" linkRefId="r49_29_to_r49_30" />
<stopFacility id="r49_30" x="3331064" y="3659384" linkRefId="r49_30_to_r49_31" />
<stopFacility id="r49_31" x="3330974" y="3659342" linkRefId="r49_31_to_r49_32" />
<stopFacility id="r49_32" x="3330884" y="3659299" linkRefId="r49_32_to_r49_33" />
<stopFacility id="r49_33" x="3330793" y="3659257" linkRefId="r49_33_to_r49_34" />
<stopFacility id="r49_34" x="3330703" y="3659214" linkRefId="r49_34_to_r49_35" />
<stopFacility id="r49_35" x="3330612" y="3659172" linkRefId="r49_35_to_r49_36" />
<stopFacility id="r49_36" x="3330521" y="3659130" linkRefId="r49_36_to_r49_37" />
<stopFacility id="r49_37" x="3330429" y="3659090" linkRefId="r49_37_to_r49_38" />
<stopFacility id="r49_38" x="3330338" y="3659051" linkRefId="r49_38_to_r49_39" />
<stopFacility id="r49_39" x="3330244" y="3659015" linkRefId="r49_39_to_r49_40" />
<stopFacility id="r49_40" x="3330155" y="3658971" linkRefId="r49_40_to_r49_41" />
<stopFacility id="r49_41" x="3330067" y="3658922" linkRefId="r49_41_to_r49_42" />
<stopFacility id="r49_42" x="3330091" y="3658885" linkRefId="r49_42_to_r49_43" />
<stopFacility id="r49_43" x="3330179" y="3658933" linkRefId="r49_43_to_r49_44" />
<stopFacility id="r49_44" x="3330241" y="3658881" linkRefId="r49_44_to_r49_45" />
<stopFacility id="r49_45" x="3330261" y="3658783" linkRefId="r49_45_to_r49_46" />
<stopFacility id="r49_46" x="3330259" y="3658683" linkRefId="r49_46_to_r49_47" />
<stopFacility id="r49_47" x="3330249" y="3658584" linkRefId="r49_47_to_r49_48" />
<stopFacility id="r49_48" x="3330209" y="3658492" linkRefId="r49_48_to_r49_49" />
<stopFacility id="r49_49" x="3330179" y="3658397" linkRefId="r49_49_to_r49_50" />
<stopFacility id="r49_50" x="3330100" y="3658347" linkRefId="r49_50_to_r49_51" />
<stopFacility id="r49_51" x="3330007" y="3658312" linkRefId="r49_51_to_r49_52" />
<stopFacility id="r49_52" x="3329913" y="3658276" linkRefId="r49_52_to_r49_53" />
<stopFacility id="r49_53" x="3329820" y="3658241" linkRefId="r49_53_to_r49_54" />
<stopFacility id="r49_54" x="3329726" y="3658205" linkRefId="r49_54_to_r49_55" />
<stopFacility id="r49_55" x="3329634" y="3658167" linkRefId="r49_55_to_r49_56" />
<stopFacility id="r49_56" x="3329542" y="3658128" linkRefId="r49_56_to_r49_57" />
<stopFacility id="r49_57" x="3329450" y="3658088" linkRefId="r49_57_to_r49_58" />
<stopFacility id="r49_58" x="3329358" y="3658048" linkRefId="r49_58_to_r49_59" />
<stopFacility id="r49_59" x="3329267" y="3658008" linkRefId="r49_59_to_r49_60" />
<stopFacility id="r49_60" x="3329175" y="3657969" linkRefId="r49_60_to_r49_61" />
<stopFacility id="r49_61" x="3329083" y="3657929" linkRefId="r49_61_to_r49_62" />
<stopFacility id="r49_62" x="3328991" y="3657889" linkRefId="r49_62_to_r49_63" />
<stopFacility id="r49_63" x="3328903" y="3657871" linkRefId="r49_63_to_r49_64" />
<stopFacility id="r49_64" x="3328822" y="3657910" linkRefId="r49_64_to_r49_65" />
<stopFacility id="r49_65" x="3328791" y="3657826" linkRefId="r49_65_to_r49_66" />
<stopFacility id="r49_66" x="3328807" y="3657788" linkRefId="r49_65_to_r49_66" />

<stopFacility id="r50_1" x="3348644" y="3669844" linkRefId="r50_1_to_r50_2" />
<stopFacility id="r50_2" x="3348662" y="3669942" linkRefId="r50_2_to_r50_3" />
<stopFacility id="r50_3" x="3348634" y="3670037" linkRefId="r50_3_to_r50_4" />
<stopFacility id="r50_4" x="3348595" y="3670129" linkRefId="r50_4_to_r50_5" />
<stopFacility id="r50_5" x="3348549" y="3670218" linkRefId="r50_5_to_r50_6" />
<stopFacility id="r50_6" x="3348500" y="3670305" linkRefId="r50_6_to_r50_7" />
<stopFacility id="r50_7" x="3348446" y="3670389" linkRefId="r50_7_to_r50_8" />
<stopFacility id="r50_8" x="3348387" y="3670470" linkRefId="r50_8_to_r50_9" />
<stopFacility id="r50_9" x="3348325" y="3670549" linkRefId="r50_9_to_r50_10" />
<stopFacility id="r50_10" x="3348258" y="3670623" linkRefId="r50_10_to_r50_11" />
<stopFacility id="r50_11" x="3348187" y="3670693" linkRefId="r50_11_to_r50_12" />
<stopFacility id="r50_12" x="3348113" y="3670761" linkRefId="r50_12_to_r50_13" />
<stopFacility id="r50_13" x="3348036" y="3670824" linkRefId="r50_13_to_r50_14" />
<stopFacility id="r50_14" x="3347955" y="3670883" linkRefId="r50_14_to_r50_15" />
<stopFacility id="r50_15" x="3347871" y="3670937" linkRefId="r50_15_to_r50_16" />
<stopFacility id="r50_16" x="3347785" y="3670988" linkRefId="r50_16_to_r50_17" />
<stopFacility id="r50_17" x="3347696" y="3671033" linkRefId="r50_17_to_r50_18" />
<stopFacility id="r50_18" x="3347604" y="3671074" linkRefId="r50_18_to_r50_19" />
<stopFacility id="r50_19" x="3347511" y="3671109" linkRefId="r50_19_to_r50_20" />
<stopFacility id="r50_20" x="3347416" y="3671141" linkRefId="r50_20_to_r50_21" />
<stopFacility id="r50_21" x="3347320" y="3671167" linkRefId="r50_21_to_r50_22" />
<stopFacility id="r50_22" x="3347222" y="3671188" linkRefId="r50_22_to_r50_23" />
<stopFacility id="r50_23" x="3347124" y="3671208" linkRefId="r50_23_to_r50_24" />
<stopFacility id="r50_24" x="3347029" y="3671192" linkRefId="r50_24_to_r50_25" />
<stopFacility id="r50_25" x="3346941" y="3671145" linkRefId="r50_25_to_r50_26" />
<stopFacility id="r50_26" x="3346853" y="3671097" linkRefId="r50_26_to_r50_27" />
<stopFacility id="r50_27" x="3346766" y="3671049" linkRefId="r50_27_to_r50_28" />
<stopFacility id="r50_28" x="3346678" y="3671000" linkRefId="r50_28_to_r50_29" />
<stopFacility id="r50_29" x="3346591" y="3670952" linkRefId="r50_29_to_r50_30" />
<stopFacility id="r50_30" x="3346500" y="3670910" linkRefId="r50_30_to_r50_31" />
<stopFacility id="r50_31" x="3346407" y="3670875" linkRefId="r50_31_to_r50_32" />
<stopFacility id="r50_32" x="3346310" y="3670849" linkRefId="r50_32_to_r50_33" />
<stopFacility id="r50_33" x="3346211" y="3670834" linkRefId="r50_33_to_r50_34" />
<stopFacility id="r50_34" x="3346112" y="3670821" linkRefId="r50_34_to_r50_35" />
<stopFacility id="r50_35" x="3346013" y="3670807" linkRefId="r50_35_to_r50_36" />
<stopFacility id="r50_36" x="3345914" y="3670793" linkRefId="r50_36_to_r50_37" />
<stopFacility id="r50_37" x="3345815" y="3670779" linkRefId="r50_37_to_r50_38" />
<stopFacility id="r50_38" x="3345716" y="3670768" linkRefId="r50_38_to_r50_39" />
<stopFacility id="r50_39" x="3345616" y="3670757" linkRefId="r50_39_to_r50_40" />