<?xml version="1.0" encoding="UTF-8"?>
<vehicleDefinitions xmlns="http://www.matsim.org/files/dtd" xmlns:xsi="http://www.w3.org/2001/XMLSchema-instance" xsi:schemaLocation="http://www.matsim.org/files/dtd http://www.matsim.org/files/dtd/vehicleDefinitions_v1.0.xsd">


<vehicleType id="1">
   <description>pt</description>
   <capacity>
      <seats persons="30"/>
      <standingRoom persons="1"/>
   </capacity>
   <length meter="5"/>
 </vehicleType>
 
   <vehicleType id="2">
   <description>train</description>
   <capacity>
      <seats persons="2000"/>
      <standingRoom persons="500"/>
   </capacity>
   <length meter="50"/>
   

</vehicleType>

<vehicle id="r58_v_1" type="1"/>
<vehicle id="r58_v_2" type="1"/>
<vehicle id="r58_v_3" type="1"/>
<vehicle id="r58_v_4" type="1"/>
<vehicle id="r58_v_5" type="1"/>
<vehicle id="r58_v_6" type="1"/>
<vehicle id="r58_v_7" type="1"/>
<vehicle id="r58_v_8" type="1"/>
<vehicle id="r58_v_9" type="1"/>
<vehicle id="r58_v_10" type="1"/>
<vehicle id="r58_v_11" type="1"/>
<vehicle id="r58_v_12" type="1"/>
<vehicle id="r58_v_13" type="1"/>
<vehicle id="r58_v_14" type="1"/>
<vehicle id="r58_v_15" type="1"/>
<vehicle id="r58_v_16" type="1"/>
<vehicle id="r58_v_17" type="1"/>
<vehicle id="r58_v_18" type="1"/>
<vehicle id="r58_v_19" type="1"/>
<vehicle id="r58_v_20" type="1"/>
<vehicle id="r58_v_21" type="1"/>
<vehicle id="r58_v_22" type="1"/>
<vehicle id="r58_v_23" type="1"/>
<vehicle id="r58_v_24" type="1"/>
<vehicle id="r58_v_25" type="1"/>
<vehicle id="r58_v_26" type="1"/>
<vehicle id="r58_v_27" type="1"/>
<vehicle id="r58_v_28" type="1"/>
<vehicle id="r58_v_29" type="1"/>
<vehicle id="r58_v_30" type="1"/>
<vehicle id="r58_v_31" type="1"/>
<vehicle id="r58_v_32" type="1"/>
<vehicle id="r58_v_33" type="1"/>
<vehicle id="r58_v_34" type="1"/>
<vehicle id="r58_v_35" type="1"/>
<vehicle id="r58_v_36" type="1"/>
<vehicle id="r58_v_37" type="1"/>
<vehicle id="r58_v_38" type="1"/>
<vehicle id="r58_v_39" type="1"/>
<vehicle id="r58_v_40" type="1"/>
<vehicle id="r58_v_41" type="1"/>

<vehicle id="r57_v_1" type="1"/>
<vehicle id="r57_v_2" type="1"/>
<vehicle id="r57_v_3" type="1"/>
<vehicle id="r57_v_4" type="1"/>
<vehicle id="r57_v_5" type="1"/>
<vehicle id="r57_v_6" type="1"/>
<vehicle id="r57_v_7" type="1"/>
<vehicle id="r57_v_8" type="1"/>
<vehicle id="r57_v_9" type="1"/>
<vehicle id="r57_v_10" type="1"/>
<vehicle id="r57_v_11" type="1"/>
<vehicle id="r57_v_12" type="1"/>
<vehicle id="r57_v_13" type="1"/>
<vehicle id="r57_v_14" type="1"/>
<vehicle id="r57_v_15" type="1"/>
<vehicle id="r57_v_16" type="1"/>
<vehicle id="r57_v_17" type="1"/>
<vehicle id="r57_v_18" type="1"/>
<vehicle id="r57_v_19" type="1"/>
<vehicle id="r57_v_20" type="1"/>
<vehicle id="r57_v_21" type="1"/>
<vehicle id="r57_v_22" type="1"/>
<vehicle id="r57_v_23" type="1"/>
<vehicle id="r57_v_24" type="1"/>
<vehicle id="r57_v_25" type="1"/>
<vehicle id="r57_v_26" type="1"/>
<vehicle id="r57_v_27" type="1"/>
<vehicle id="r57_v_28" type="1"/>
<vehicle id="r57_v_29" type="1"/>
<vehicle id="r57_v_30" type="1"/>
<vehicle id="r57_v_31" type="1"/>
<vehicle id="r57_v_32" type="1"/>
<vehicle id="r57_v_33" type="1"/>
<vehicle id="r57_v_34" type="1"/>
<vehicle id="r57_v_35" type="1"/>
<vehicle id="r57_v_36" type="1"/>
<vehicle id="r57_v_37" type="1"/>
<vehicle id="r57_v_38" type="1"/>
<vehicle id="r57_v_39" type="1"/>
<vehicle id="r57_v_40" type="1"/>
<vehicle id="r57_v_41" type="1"/>

<vehicle id="r56_v_1" type="1"/>
<vehicle id="r56_v_2" type="1"/>
<vehicle id="r56_v_3" type="1"/>
<vehicle id="r56_v_4" type="1"/>
<vehicle id="r56_v_5" type="1"/>
<vehicle id="r56_v_6" type="1"/>
<vehicle id="r56_v_7" type="1"/>
<vehicle id="r56_v_8" type="1"/>
<vehicle id="r56_v_9" type="1"/>
<vehicle id="r56_v_10" type="1"/>
<vehicle id="r56_v_11" type="1"/>
<vehicle id="r56_v_12" type="1"/>
<vehicle id="r56_v_13" type="1"/>
<vehicle id="r56_v_14" type="1"/>
<vehicle id="r56_v_15" type="1"/>
<vehicle id="r56_v_16" type="1"/>
<vehicle id="r56_v_17" type="1"/>
<vehicle id="r56_v_18" type="1"/>
<vehicle id="r56_v_19" type="1"/>
<vehicle id="r56_v_20" type="1"/>
<vehicle id="r56_v_21" type="1"/>
<vehicle id="r56_v_22" type="1"/>
<vehicle id="r56_v_23" type="1"/>
<vehicle id="r56_v_24" type="1"/>
<vehicle id="r56_v_25" type="1"/>
<vehicle id="r56_v_26" type="1"/>
<vehicle id="r56_v_27" type="1"/>
<vehicle id="r56_v_28" type="1"/>
<vehicle id="r56_v_29" type="1"/>
<vehicle id="r56_v_30" type="1"/>
<vehicle id="r56_v_31" type="1"/>
<vehicle id="r56_v_32" type="1"/>
<vehicle id="r56_v_33" type="1"/>
<vehicle id="r56_v_34" type="1"/>
<vehicle id="r56_v_35" type="1"/>
<vehicle id="r56_v_36" type="1"/>
<vehicle id="r56_v_37" type="1"/>
<vehicle id="r56_v_38" type="1"/>
<vehicle id="r56_v_39" type="1"/>
<vehicle id="r56_v_40" type="1"/>
<vehicle id="r56_v_41" type="1"/>

<vehicle id="r55_v_1" type="1"/>
<vehicle id="r55_v_2" type="1"/>
<vehicle id="r55_v_3" type="1"/>
<vehicle id="r55_v_4" type="1"/>
<vehicle id="r55_v_5" type="1"/>
<vehicle id="r55_v_6" type="1"/>
<vehicle id="r55_v_7" type="1"/>
<vehicle id="r55_v_8" type="1"/>
<vehicle id="r55_v_9" type="1"/>
<vehicle id="r55_v_10" type="1"/>
<vehicle id="r55_v_11" type="1"/>
<vehicle id="r55_v_12" type="1"/>
<vehicle id="r55_v_13" type="1"/>
<vehicle id="r55_v_14" type="1"/>
<vehicle id="r55_v_15" type="1"/>
<vehicle id="r55_v_16" type="1"/>
<vehicle id="r55_v_17" type="1"/>
<vehicle id="r55_v_18" type="1"/>
<vehicle id="r55_v_19" type="1"/>
<vehicle id="r55_v_20" type="1"/>
<vehicle id="r55_v_21" type="1"/>
<vehicle id="r55_v_22" type="1"/>
<vehicle id="r55_v_23" type="1"/>
<vehicle id="r55_v_24" type="1"/>
<vehicle id="r55_v_25" type="1"/>
<vehicle id="r55_v_26" type="1"/>
<vehicle id="r55_v_27" type="1"/>
<vehicle id="r55_v_28" type="1"/>
<vehicle id="r55_v_29" type="1"/>
<vehicle id="r55_v_30" type="1"/>
<vehicle id="r55_v_31" type="1"/>
<vehicle id="r55_v_32" type="1"/>
<vehicle id="r55_v_33" type="1"/>
<vehicle id="r55_v_34" type="1"/>
<vehicle id="r55_v_35" type="1"/>
<vehicle id="r55_v_36" type="1"/>
<vehicle id="r55_v_37" type="1"/>
<vehicle id="r55_v_38" type="1"/>
<vehicle id="r55_v_39" type="1"/>
<vehicle id="r55_v_40" type="1"/>
<vehicle id="r55_v_41" type="1"/>

<vehicle id="r54_v_1" type="1"/>
<vehicle id="r54_v_2" type="1"/>
<vehicle id="r54_v_3" type="1"/>
<vehicle id="r54_v_4" type="1"/>
<vehicle id="r54_v_5" type="1"/>
<vehicle id="r54_v_6" type="1"/>
<vehicle id="r54_v_7" type="1"/>
<vehicle id="r54_v_8" type="1"/>
<vehicle id="r54_v_9" type="1"/>
<vehicle id="r54_v_10" type="1"/>
<vehicle id="r54_v_11" type="1"/>
<vehicle id="r54_v_12" type="1"/>
<vehicle id="r54_v_13" type="1"/>
<vehicle id="r54_v_14" type="1"/>
<vehicle id="r54_v_15" type="1"/>

<vehicle id="r53_v_1" type="1"/>
<vehicle id="r53_v_2" type="1"/>
<vehicle id="r53_v_3" type="1"/>
<vehicle id="r53_v_4" type="1"/>
<vehicle id="r53_v_5" type="1"/>
<vehicle id="r53_v_6" type="1"/>
<vehicle id="r53_v_7" type="1"/>
<vehicle id="r53_v_8" type="1"/>
<vehicle id="r53_v_9" type="1"/>
<vehicle id="r53_v_10" type="1"/>
<vehicle id="r53_v_11" type="1"/>
<vehicle id="r53_v_12" type="1"/>
<vehicle id="r53_v_13" type="1"/>
<vehicle id="r53_v_14" type="1"/>
<vehicle id="r53_v_15" type="1"/>
<vehicle id="r53_v_16" type="1"/>
<vehicle id="r53_v_17" type="1"/>
<vehicle id="r53_v_18" type="1"/>
<vehicle id="r53_v_19" type="1"/>
<vehicle id="r53_v_20" type="1"/>
<vehicle id="r53_v_21" type="1"/>
<vehicle id="r53_v_22" type="1"/>
<vehicle id="r53_v_23" type="1"/>
<vehicle id="r53_v_24" type="1"/>
<vehicle id="r53_v_25" type="1"/>
<vehicle id="r53_v_26" type="1"/>
<vehicle id="r53_v_27" type="1"/>
<vehicle id="r53_v_28" type="1"/>
<vehicle id="r53_v_29" type="1"/>
<vehicle id="r53_v_30" type="1"/>
<vehicle id="r53_v_31" type="1"/>
<vehicle id="r53_v_32" type="1"/>
<vehicle id="r53_v_33" type="1"/>
<vehicle id="r53_v_34" type="1"/>
<vehicle id="r53_v_35" type="1"/>
<vehicle id="r53_v_36" type="1"/>
<vehicle id="r53_v_37" type="1"/>
<vehicle id="r53_v_38" type="1"/>
<vehicle id="r53_v_39" type="1"/>
<vehicle id="r53_v_40" type="1"/>
<vehicle id="r53_v_41" type="1"/>

<vehicle id="r52_v_1" type="1"/>
<vehicle id="r52_v_2" type="1"/>
<vehicle id="r52_v_3" type="1"/>
<vehicle id="r52_v_4" type="1"/>
<vehicle id="r52_v_5" type="1"/>
<vehicle id="r52_v_6" type="1"/>
<vehicle id="r52_v_7" type="1"/>
<vehicle id="r52_v_8" type="1"/>
<vehicle id="r52_v_9" type="1"/>
<vehicle id="r52_v_10" type="1"/>
<vehicle id="r52_v_11" type="1"/>
<vehicle id="r52_v_12" type="1"/>
<vehicle id="r52_v_13" type="1"/>
<vehicle id="r52_v_14" type="1"/>
<vehicle id="r52_v_15" type="1"/>
<vehicle id="r52_v_16" type="1"/>
<vehicle id="r52_v_17" type="1"/>
<vehicle id="r52_v_18" type="1"/>
<vehicle id="r52_v_19" type="1"/>
<vehicle id="r52_v_20" type="1"/>
<vehicle id="r52_v_21" type="1"/>
<vehicle id="r52_v_22" type="1"/>
<vehicle id="r52_v_23" type="1"/>
<vehicle id="r52_v_24" type="1"/>
<vehicle id="r52_v_25" type="1"/>
<vehicle id="r52_v_26" type="1"/>
<vehicle id="r52_v_27" type="1"/>
<vehicle id="r52_v_28" type="1"/>
<vehicle id="r52_v_29" type="1"/>
<vehicle id="r52_v_30" type="1"/>
<vehicle id="r52_v_31" type="1"/>
<vehicle id="r52_v_32" type="1"/>
<vehicle id="r52_v_33" type="1"/>
<vehicle id="r52_v_34" type="1"/>
<vehicle id="r52_v_35" type="1"/>
<vehicle id="r52_v_36" type="1"/>
<vehicle id="r52_v_37" type="1"/>
<vehicle id="r52_v_38" type="1"/>
<vehicle id="r52_v_39" type="1"/>
<vehicle id="r52_v_40" type="1"/>
<vehicle id="r52_v_41" type="1"/>

<vehicle id="r51_v_1" type="1"/>
<vehicle id="r51_v_2" type="1"/>
<vehicle id="r51_v_3" type="1"/>
<vehicle id="r51_v_4" type="1"/>
<vehicle id="r51_v_5" type="1"/>
<vehicle id="r51_v_6" type="1"/>
<vehicle id="r51_v_7" type="1"/>
<vehicle id="r51_v_8" type="1"/>
<vehicle id="r51_v_9" type="1"/>
<vehicle id="r51_v_10" type="1"/>
<vehicle id="r51_v_11" type="1"/>
<vehicle id="r51_v_12" type="1"/>
<vehicle id="r51_v_13" type="1"/>
<vehicle id="r51_v_14" type="1"/>
<vehicle id="r51_v_15" type="1"/>
<vehicle id="r51_v_16" type="1"/>
<vehicle id="r51_v_17" type="1"/>
<vehicle id="r51_v_18" type="1"/>
<vehicle id="r51_v_19" type="1"/>
<vehicle id="r51_v_20" type="1"/>
<vehicle id="r51_v_21" type="1"/>
<vehicle id="r51_v_22" type="1"/>
<vehicle id="r51_v_23" type="1"/>
<vehicle id="r51_v_24" type="1"/>
<vehicle id="r51_v_25" type="1"/>
<vehicle id="r51_v_26" type="1"/>
<vehicle id="r51_v_27" type="1"/>
<vehicle id="r51_v_28" type="1"/>
<vehicle id="r51_v_29" type="1"/>
<vehicle id="r51_v_30" type="1"/>
<vehicle id="r51_v_31" type="1"/>
<vehicle id="r51_v_32" type="1"/>
<vehicle id="r51_v_33" type="1"/>
<vehicle id="r51_v_34" type="1"/>
<vehicle id="r51_v_35" type="1"/>
<vehicle id="r51_v_36" type="1"/>
<vehicle id="r51_v_37" type="1"/>
<vehicle id="r51_v_38" type="1"/>
<vehicle id="r51_v_39" type="1"/>
<vehicle id="r51_v_40" type="1"/>
<vehicle id="r51_v_41" type="1"/>

<vehicle id="r50_v_1" type="1"/>
<vehicle id="r50_v_2" type="1"/>
<vehicle id="r50_v_3" type="1"/>
<vehicle id="r50_v_4" type="1"/>
<vehicle id="r50_v_5" type="1"/>
<vehicle id="r50_v_6" type="1"/>
<vehicle id="r50_v_7" type="1"/>
<vehicle id="r50_v_8" type="1"/>
<vehicle id="r50_v_9" type="1"/>
<vehicle id="r50_v_10" type="1"/>
<vehicle id="r50_v_11" type="1"/>
<vehicle id="r50_v_12" type="1"/>
<vehicle id="r50_v_13" type="1"/>
<vehicle id="r50_v_14" type="1"/>
<vehicle id="r50_v_15" type="1"/>
<vehicle id="r50_v_16" type="1"/>
<vehicle id="r50_v_17" type="1"/>
<vehicle id="r50_v_18" type="1"/>
<vehicle id="r50_v_19" type="1"/>
<vehicle id="r50_v_20" type="1"/>
<vehicle id="r50_v_21" type="1"/>
<vehicle id="r50_v_22" type="1"/>
<vehicle id="r50_v_23" type="1"/>
<vehicle id="r50_v_24" type="1"/>
<vehicle id="r50_v_25" type="1"/>
<vehicle id="r50_v_26" type="1"/>
<vehicle id="r50_v_27" type="1"/>
<vehicle id="r50_v_28" type="1"/>
<vehicle id="r50_v_29" type="1"/>
<vehicle id="r50_v_30" type="1"/>
<vehicle id="r50_v_31" type="1"/>
<vehicle id="r50_v_32" type="1"/>
<vehicle id="r50_v_33" type="1"/>
<vehicle id="r50_v_34" type="1"/>
<vehicle id="r50_v_35" type="1"/>
<vehicle id="r50_v_36" type="1"/>
<vehicle id="r50_v_37" type="1"/>
<vehicle id="r50_v_38" type="1"/>
<vehicle id="r50_v_39" type="1"/>
<vehicle id="r50_v_40" type="1"/>
<vehicle id="r50_v_41" type="1"/>


<vehicle id="r49_v_1" type="1"/>
<vehicle id="r49_v_2" type="1"/>
<vehicle id="r49_v_3" type="1"/>
<vehicle id="r49_v_4" type="1"/>
<vehicle id="r49_v_5" type="1"/>
<vehicle id="r49_v_6" type="1"/>
<vehicle id="r49_v_7" type="1"/>
<vehicle id="r49_v_8" type="1"/>
<vehicle id="r49_v_9" type="1"/>
<vehicle id="r49_v_10" type="1"/>
<vehicle id="r49_v_11" type="1"/>
<vehicle id="r49_v_12" type="1"/>
<vehicle id="r49_v_13" type="1"/>
<vehicle id="r49_v_14" type="1"/>
<vehicle id="r49_v_15" type="1"/>
<vehicle id="r49_v_16" type="1"/>
<vehicle id="r49_v_17" type="1"/>
<vehicle id="r49_v_18" type="1"/>
<vehicle id="r49_v_19" type="1"/>
<vehicle id="r49_v_20" type="1"/>
<vehicle id="r49_v_21" type="1"/>
<vehicle id="r49_v_22" type="1"/>
<vehicle id="r49_v_23" type="1"/>
<vehicle id="r49_v_24" type="1"/>
<vehicle id="r49_v_25" type="1"/>
<vehicle id="r49_v_26" type="1"/>
<vehicle id="r49_v_27" type="1"/>
<vehicle id="r49_v_28" type="1"/>
<vehicle id="r49_v_29" type="1"/>
<vehicle id="r49_v_30" type="1"/>
<vehicle id="r49_v_31" type="1"/>
<vehicle id="r49_v_32" type="1"/>
<vehicle id="r49_v_33" type="1"/>
<vehicle id="r49_v_34" type="1"/>
<vehicle id="r49_v_35" type="1"/>
<vehicle id="r49_v_36" type="1"/>
<vehicle id="r49_v_37" type="1"/>
<vehicle id="r49_v_38" type="1"/>
<vehicle id="r49_v_39" type="1"/>
<vehicle id="r49_v_40" type="1"/>
<vehicle id="r49_v_41" type="1"/>


<vehicle id="r48_v_1" type="1"/>
<vehicle id="r48_v_2" type="1"/>
<vehicle id="r48_v_3" type="1"/>
<vehicle id="r48_v_4" type="1"/>
<vehicle id="r48_v_5" type="1"/>
<vehicle id="r48_v_6" type="1"/>
<vehicle id="r48_v_7" type="1"/>
<vehicle id="r48_v_8" type="1"/>
<vehicle id="r48_v_9" type="1"/>
<vehicle id="r48_v_10" type="1"/>
<vehicle id="r48_v_11" type="1"/>
<vehicle id="r48_v_12" type="1"/>
<vehicle id="r48_v_13" type="1"/>
<vehicle id="r48_v_14" type="1"/>
<vehicle id="r48_v_15" type="1"/>
<vehicle id="r48_v_16" type="1"/>
<vehicle id="r48_v_17" type="1"/>
<vehicle id="r48_v_18" type="1"/>
<vehicle id="r48_v_19" type="1"/>
<vehicle id="r48_v_20" type="1"/>
<vehicle id="r48_v_21" type="1"/>
<vehicle id="r48_v_22" type="1"/>
<vehicle id="r48_v_23" type="1"/>
<vehicle id="r48_v_24" type="1"/>
<vehicle id="r48_v_25" type="1"/>
<vehicle id="r48_v_26" type="1"/>
<vehicle id="r48_v_27" type="1"/>
<vehicle id="r48_v_28" type="1"/>
<vehicle id="r48_v_29" type="1"/>
<vehicle id="r48_v_30" type="1"/>
<vehicle id="r48_v_31" type="1"/>
<vehicle id="r48_v_32" type="1"/>


<vehicle id="r47_v_1" type="1"/>
<vehicle id="r47_v_2" type="1"/>
<vehicle id="r47_v_3" type="1"/>
<vehicle id="r47_v_4" type="1"/>
<vehicle id="r47_v_5" type="1"/>
<vehicle id="r47_v_6" type="1"/>
<vehicle id="r47_v_7" type="1"/>
<vehicle id="r47_v_8" type="1"/>
<vehicle id="r47_v_9" type="1"/>
<vehicle id="r47_v_10" type="1"/>
<vehicle id="r47_v_11" type="1"/>
<vehicle id="r47_v_12" type="1"/>
<vehicle id="r47_v_13" type="1"/>
<vehicle id="r47_v_14" type="1"/>
<vehicle id="r47_v_15" type="1"/>
<vehicle id="r47_v_16" type="1"/>
<vehicle id="r47_v_17" type="1"/>
<vehicle id="r47_v_18" type="1"/>
<vehicle id="r47_v_19" type="1"/>
<vehicle id="r47_v_20" type="1"/>
<vehicle id="r47_v_21" type="1"/>
<vehicle id="r47_v_22" type="1"/>
<vehicle id="r47_v_23" type="1"/>
<vehicle id="r47_v_24" type="1"/>
<vehicle id="r47_v_25" type="1"/>
<vehicle id="r47_v_26" type="1"/>
<vehicle id="r47_v_27" type="1"/>
<vehicle id="r47_v_28" type="1"/>
<vehicle id="r47_v_29" type="1"/>
<vehicle id="r47_v_30" type="1"/>
<vehicle id="r47_v_31" type="1"/>
<vehicle id="r47_v_32" type="1"/>
<vehicle id="r47_v_33" type="1"/>
<vehicle id="r47_v_34" type="1"/>
<vehicle id="r47_v_35" type="1"/>
<vehicle id="r47_v_36" type="1"/>
<vehicle id="r47_v_37" type="1"/>
<vehicle id="r47_v_38" type="1"/>
<vehicle id="r47_v_39" type="1"/>
<vehicle id="r47_v_40" type="1"/>
<vehicle id="r47_v_41" type="1"/>

<vehicle id="r46_v_1" type="1"/>
<vehicle id="r46_v_2" type="1"/>
<vehicle id="r46_v_3" type="1"/>
<vehicle id="r46_v_4" type="1"/>
<vehicle id="r46_v_5" type="1"/>
<vehicle id="r46_v_6" type="1"/>
<vehicle id="r46_v_7" type="1"/>
<vehicle id="r46_v_8" type="1"/>
<vehicle id="r46_v_9" type="1"/>
<vehicle id="r46_v_10" type="1"/>
<vehicle id="r46_v_11" type="1"/>
<vehicle id="r46_v_12" type="1"/>
<vehicle id="r46_v_13" type="1"/>
<vehicle id="r46_v_14" type="1"/>
<vehicle id="r46_v_15" type="1"/>
<vehicle id="r46_v_16" type="1"/>
<vehicle id="r46_v_17" type="1"/>
<vehicle id="r46_v_18" type="1"/>
<vehicle id="r46_v_19" type="1"/>
<vehicle id="r46_v_20" type="1"/>
<vehicle id="r46_v_21" type="1"/>
<vehicle id="r46_v_22" type="1"/>
<vehicle id="r46_v_23" type="1"/>
<vehicle id="r46_v_24" type="1"/>
<vehicle id="r46_v_25" type="1"/>
<vehicle id="r46_v_26" type="1"/>
<vehicle id="r46_v_27" type="1"/>
<vehicle id="r46_v_28" type="1"/>
<vehicle id="r46_v_29" type="1"/>
<vehicle id="r46_v_30" type="1"/>
<vehicle id="r46_v_31" type="1"/>
<vehicle id="r46_v_32" type="1"/>
<vehicle id="r46_v_33" type="1"/>
<vehicle id="r46_v_34" type="1"/>
<vehicle id="r46_v_35" type="1"/>
<vehicle id="r46_v_36" type="1"/>
<vehicle id="r46_v_37" type="1"/>
<vehicle id="r46_v_38" type="1"/>
<vehicle id="r46_v_39" type="1"/>
<vehicle id="r46_v_40" type="1"/>
<vehicle id="r46_v_41" type="1"/>



<vehicle id="r44x_v_1" type="1"/>
<vehicle id="r44x_v_2" type="1"/>
<vehicle id="r44x_v_3" type="1"/>
<vehicle id="r44x_v_4" type="1"/>
<vehicle id="r44x_v_5" type="1"/>
<vehicle id="r44x_v_6" type="1"/>
<vehicle id="r44x_v_7" type="1"/>
<vehicle id="r44x_v_8" type="1"/>
<vehicle id="r44x_v_9" type="1"/>
<vehicle id="r44x_v_10" type="1"/>
<vehicle id="r44x_v_11" type="1"/>
<vehicle id="r44x_v_12" type="1"/>
<vehicle id="r44x_v_13" type="1"/>
<vehicle id="r44x_v_14" type="1"/>
<vehicle id="r44x_v_15" type="1"/>
<vehicle id="r44x_v_16" type="1"/>
<vehicle id="r44x_v_17" type="1"/>
<vehicle id="r44x_v_18" type="1"/>
<vehicle id="r44x_v_19" type="1"/>
<vehicle id="r44x_v_20" type="1"/>
<vehicle id="r44x_v_21" type="1"/>
<vehicle id="r44x_v_22" type="1"/>
<vehicle id="r44x_v_23" type="1"/>
<vehicle id="r44x_v_24" type="1"/>
<vehicle id="r44x_v_25" type="1"/>
<vehicle id="r44x_v_26" type="1"/>
<vehicle id="r44x_v_27" type="1"/>
<vehicle id="r44x_v_28" type="1"/>
<vehicle id="r44x_v_29" type="1"/>
<vehicle id="r44x_v_30" type="1"/>
<vehicle id="r44x_v_31" type="1"/>
<vehicle id="r44x_v_32" type="1"/>
<vehicle id="r44x_v_33" type="1"/>
<vehicle id="r44x_v_34" type="1"/>
<vehicle id="r44x_v_35" type="1"/>
<vehicle id="r44x_v_36" type="1"/>
<vehicle id="r44x_v_37" type="1"/>
<vehicle id="r44x_v_38" type="1"/>
<vehicle id="r44x_v_39" type="1"/>
<vehicle id="r44x_v_40" type="1"/>
<vehicle id="r44x_v_41" type="1"/>



<vehicle id="r43_v_1" type="1"/>
<vehicle id="r43_v_2" type="1"/>
<vehicle id="r43_v_3" type="1"/>
<vehicle id="r43_v_4" type="1"/>
<vehicle id="r43_v_5" type="1"/>
<vehicle id="r43_v_6" type="1"/>
<vehicle id="r43_v_7" type="1"/>
<vehicle id="r43_v_8" type="1"/>
<vehicle id="r43_v_9" type="1"/>
<vehicle id="r43_v_10" type="1"/>
<vehicle id="r43_v_11" type="1"/>
<vehicle id="r43_v_12" type="1"/>
<vehicle id="r43_v_13" type="1"/>
<vehicle id="r43_v_14" type="1"/>
<vehicle id="r43_v_15" type="1"/>
<vehicle id="r43_v_16" type="1"/>
<vehicle id="r43_v_17" type="1"/>
<vehicle id="r43_v_18" type="1"/>
<vehicle id="r43_v_19" type="1"/>
<vehicle id="r43_v_20" type="1"/>
<vehicle id="r43_v_21" type="1"/>
<vehicle id="r43_v_22" type="1"/>
<vehicle id="r43_v_23" type="1"/>
<vehicle id="r43_v_24" type="1"/>
<vehicle id="r43_v_25" type="1"/>
<vehicle id="r43_v_26" type="1"/>
<vehicle id="r43_v_27" type="1"/>
<vehicle id="r43_v_28" type="1"/>
<vehicle id="r43_v_29" type="1"/>
<vehicle id="r43_v_30" type="1"/>
<vehicle id="r43_v_31" type="1"/>
<vehicle id="r43_v_32" type="1"/>
<vehicle id="r43_v_33" type="1"/>
<vehicle id="r43_v_34" type="1"/>
<vehicle id="r43_v_35" type="1"/>
<vehicle id="r43_v_36" type="1"/>
<vehicle id="r43_v_37" type="1"/>
<vehicle id="r43_v_38" type="1"/>
<vehicle id="r43_v_39" type="1"/>
<vehicle id="r43_v_40" type="1"/>
<vehicle id="r43_v_41" type="1"/>


<vehicle id="r42_v_1" type="1"/>
<vehicle id="r42_v_2" type="1"/>
<vehicle id="r42_v_3" type="1"/>
<vehicle id="r42_v_4" type="1"/>
<vehicle id="r42_v_5" type="1"/>
<vehicle id="r42_v_6" type="1"/>
<vehicle id="r42_v_7" type="1"/>
<vehicle id="r42_v_8" type="1"/>
<vehicle id="r42_v_9" type="1"/>
<vehicle id="r42_v_10" type="1"/>
<vehicle id="r42_v_11" type="1"/>
<vehicle id="r42_v_12" type="1"/>
<vehicle id="r42_v_13" type="1"/>
<vehicle id="r42_v_14" type="1"/>
<vehicle id="r42_v_15" type="1"/>
<vehicle id="r42_v_16" type="1"/>
<vehicle id="r42_v_17" type="1"/>
<vehicle id="r42_v_18" type="1"/>
<vehicle id="r42_v_19" type="1"/>
<vehicle id="r42_v_20" type="1"/>
<vehicle id="r42_v_21" type="1"/>
<vehicle id="r42_v_22" type="1"/>
<vehicle id="r42_v_23" type="1"/>
<vehicle id="r42_v_24" type="1"/>
<vehicle id="r42_v_25" type="1"/>
<vehicle id="r42_v_26" type="1"/>
<vehicle id="r42_v_27" type="1"/>
<vehicle id="r42_v_28" type="1"/>
<vehicle id="r42_v_29" type="1"/>
<vehicle id="r42_v_30" type="1"/>
<vehicle id="r42_v_31" type="1"/>
<vehicle id="r42_v_32" type="1"/>
<vehicle id="r42_v_33" type="1"/>
<vehicle id="r42_v_34" type="1"/>
<vehicle id="r42_v_35" type="1"/>
<vehicle id="r42_v_36" type="1"/>
<vehicle id="r42_v_37" type="1"/>
<vehicle id="r42_v_38" type="1"/>
<vehicle id="r42_v_39" type="1"/>
<vehicle id="r42_v_40" type="1"/>
<vehicle id="r42_v_41" type="1"/>


<vehicle id="r41_v_1" type="1"/>
<vehicle id="r41_v_2" type="1"/>
<vehicle id="r41_v_3" type="1"/>
<vehicle id="r41_v_4" type="1"/>
<vehicle id="r41_v_5" type="1"/>
<vehicle id="r41_v_6" type="1"/>
<vehicle id="r41_v_7" type="1"/>
<vehicle id="r41_v_8" type="1"/>
<vehicle id="r41_v_9" type="1"/>
<vehicle id="r41_v_10" type="1"/>
<vehicle id="r41_v_11" type="1"/>
<vehicle id="r41_v_12" type="1"/>
<vehicle id="r41_v_13" type="1"/>
<vehicle id="r41_v_14" type="1"/>
<vehicle id="r41_v_15" type="1"/>
<vehicle id="r41_v_16" type="1"/>


<vehicle id="r40_v_1" type="1"/>
<vehicle id="r40_v_2" type="1"/>
<vehicle id="r40_v_3" type="1"/>
<vehicle id="r40_v_4" type="1"/>
<vehicle id="r40_v_5" type="1"/>
<vehicle id="r40_v_6" type="1"/>
<vehicle id="r40_v_7" type="1"/>
<vehicle id="r40_v_8" type="1"/>
<vehicle id="r40_v_9" type="1"/>
<vehicle id="r40_v_10" type="1"/>
<vehicle id="r40_v_11" type="1"/>
<vehicle id="r40_v_12" type="1"/>
<vehicle id="r40_v_13" type="1"/>
<vehicle id="r40_v_14" type="1"/>
<vehicle id="r40_v_15" type="1"/>
<vehicle id="r40_v_16" type="1"/>
<vehicle id="r40_v_17" type="1"/>
<vehicle id="r40_v_18" type="1"/>
<vehicle id="r40_v_19" type="1"/>
<vehicle id="r40_v_20" type="1"/>
<vehicle id="r40_v_21" type="1"/>
<vehicle id="r40_v_22" type="1"/>
<vehicle id="r40_v_23" type="1"/>
<vehicle id="r40_v_24" type="1"/>
<vehicle id="r40_v_25" type="1"/>
<vehicle id="r40_v_26" type="1"/>
<vehicle id="r40_v_27" type="1"/>
<vehicle id="r40_v_28" type="1"/>
<vehicle id="r40_v_29" type="1"/>
<vehicle id="r40_v_30" type="1"/>
<vehicle id="r40_v_31" type="1"/>
<vehicle id="r40_v_32" type="1"/>
<vehicle id="r40_v_33" type="1"/>
<vehicle id="r40_v_34" type="1"/>
<vehicle id="r40_v_35" type="1"/>
<vehicle id="r40_v_36" type="1"/>
<vehicle id="r40_v_37" type="1"/>
<vehicle id="r40_v_38" type="1"/>
<vehicle id="r40_v_39" type="1"/>
<vehicle id="r40_v_40" type="1"/>
<vehicle id="r40_v_41" type="1"/>


<vehicle id="r39_v_1" type="1"/>
<vehicle id="r39_v_2" type="1"/>
<vehicle id="r39_v_3" type="1"/>
<vehicle id="r39_v_4" type="1"/>
<vehicle id="r39_v_5" type="1"/>
<vehicle id="r39_v_6" type="1"/>
<vehicle id="r39_v_7" type="1"/>
<vehicle id="r39_v_8" type="1"/>
<vehicle id="r39_v_9" type="1"/>
<vehicle id="r39_v_10" type="1"/>
<vehicle id="r39_v_11" type="1"/>
<vehicle id="r39_v_12" type="1"/>
<vehicle id="r39_v_13" type="1"/>
<vehicle id="r39_v_14" type="1"/>
<vehicle id="r39_v_15" type="1"/>
<vehicle id="r39_v_16" type="1"/>
<vehicle id="r39_v_17" type="1"/>
<vehicle id="r39_v_18" type="1"/>
<vehicle id="r39_v_19" type="1"/>
<vehicle id="r39_v_20" type="1"/>
<vehicle id="r39_v_21" type="1"/>
<vehicle id="r39_v_22" type="1"/>
<vehicle id="r39_v_23" type="1"/>
<vehicle id="r39_v_24" type="1"/>
<vehicle id="r39_v_25" type="1"/>
<vehicle id="r39_v_26" type="1"/>


<vehicle id="r38_v_1" type="1"/>
<vehicle id="r38_v_2" type="1"/>
<vehicle id="r38_v_3" type="1"/>
<vehicle id="r38_v_4" type="1"/>
<vehicle id="r38_v_5" type="1"/>
<vehicle id="r38_v_6" type="1"/>
<vehicle id="r38_v_7" type="1"/>
<vehicle id="r38_v_8" type="1"/>
<vehicle id="r38_v_9" type="1"/>
<vehicle id="r38_v_10" type="1"/>
<vehicle id="r38_v_11" type="1"/>
<vehicle id="r38_v_12" type="1"/>
<vehicle id="r38_v_13" type="1"/>
<vehicle id="r38_v_14" type="1"/>
<vehicle id="r38_v_15" type="1"/>
<vehicle id="r38_v_16" type="1"/>
<vehicle id="r38_v_17" type="1"/>
<vehicle id="r38_v_18" type="1"/>
<vehicle id="r38_v_19" type="1"/>
<vehicle id="r38_v_20" type="1"/>
<vehicle id="r38_v_21" type="1"/>
<vehicle id="r38_v_22" type="1"/>
<vehicle id="r38_v_23" type="1"/>
<vehicle id="r38_v_24" type="1"/>
<vehicle id="r38_v_25" type="1"/>
<vehicle id="r38_v_26" type="1"/>
<vehicle id="r38_v_27" type="1"/>
<vehicle id="r38_v_28" type="1"/>
<vehicle id="r38_v_29" type="1"/>
<vehicle id="r38_v_30" type="1"/>
<vehicle id="r38_v_31" type="1"/>
<vehicle id="r38_v_32" type="1"/>
<vehicle id="r38_v_33" type="1"/>
<vehicle id="r38_v_34" type="1"/>
<vehicle id="r38_v_35" type="1"/>
<vehicle id="r38_v_36" type="1"/>
<vehicle id="r38_v_37" type="1"/>
<vehicle id="r38_v_38" type="1"/>
<vehicle id="r38_v_39" type="1"/>
<vehicle id="r38_v_40" type="1"/>
<vehicle id="r38_v_41" type="1"/>


<vehicle id="r37_v_1" type="1"/>
<vehicle id="r37_v_2" type="1"/>
<vehicle id="r37_v_3" type="1"/>
<vehicle id="r37_v_4" type="1"/>
<vehicle id="r37_v_5" type="1"/>
<vehicle id="r37_v_6" type="1"/>
<vehicle id="r37_v_7" type="1"/>
<vehicle id="r37_v_8" type="1"/>
<vehicle id="r37_v_9" type="1"/>
<vehicle id="r37_v_10" type="1"/>
<vehicle id="r37_v_11" type="1"/>
<vehicle id="r37_v_12" type="1"/>
<vehicle id="r37_v_13" type="1"/>
<vehicle id="r37_v_14" type="1"/>
<vehicle id="r37_v_15" type="1"/>
<vehicle id="r37_v_16" type="1"/>
<vehicle id="r37_v_17" type="1"/>
<vehicle id="r37_v_18" type="1"/>
<vehicle id="r37_v_19" type="1"/>
<vehicle id="r37_v_20" type="1"/>
<vehicle id="r37_v_21" type="1"/>
<vehicle id="r37_v_22" type="1"/>
<vehicle id="r37_v_23" type="1"/>
<vehicle id="r37_v_24" type="1"/>
<vehicle id="r37_v_25" type="1"/>
<vehicle id="r37_v_26" type="1"/>
<vehicle id="r37_v_27" type="1"/>
<vehicle id="r37_v_28" type="1"/>
<vehicle id="r37_v_29" type="1"/>
<vehicle id="r37_v_30" type="1"/>
<vehicle id="r37_v_31" type="1"/>
<vehicle id="r37_v_32" type="1"/>
<vehicle id="r37_v_33" type="1"/>
<vehicle id="r37_v_34" type="1"/>
<vehicle id="r37_v_35" type="1"/>
<vehicle id="r37_v_36" type="1"/>
<vehicle id="r37_v_37" type="1"/>
<vehicle id="r37_v_38" type="1"/>
<vehicle id="r37_v_39" type="1"/>
<vehicle id="r37_v_40" type="1"/>
<vehicle id="r37_v_41" type="1"/>


<vehicle id="r36_v_1" type="1"/>
<vehicle id="r36_v_2" type="1"/>
<vehicle id="r36_v_3" type="1"/>
<vehicle id="r36_v_4" type="1"/>
<vehicle id="r36_v_5" type="1"/>
<vehicle id="r36_v_6" type="1"/>
<vehicle id="r36_v_7" type="1"/>
<vehicle id="r36_v_8" type="1"/>
<vehicle id="r36_v_9" type="1"/>
<vehicle id="r36_v_10" type="1"/>
<vehicle id="r36_v_11" type="1"/>
<vehicle id="r36_v_12" type="1"/>
<vehicle id="r36_v_13" type="1"/>
<vehicle id="r36_v_14" type="1"/>
<vehicle id="r36_v_15" type="1"/>
<vehicle id="r36_v_16" type="1"/>
<vehicle id="r36_v_17" type="1"/>
<vehicle id="r36_v_18" type="1"/>
<vehicle id="r36_v_19" type="1"/>
<vehicle id="r36_v_20" type="1"/>
<vehicle id="r36_v_21" type="1"/>
<vehicle id="r36_v_22" type="1"/>
<vehicle id="r36_v_23" type="1"/>
<vehicle id="r36_v_24" type="1"/>
<vehicle id="r36_v_25" type="1"/>
<vehicle id="r36_v_26" type="1"/>
<vehicle id="r36_v_27" type="1"/>
<vehicle id="r36_v_28" type="1"/>
<vehicle id="r36_v_29" type="1"/>
<vehicle id="r36_v_30" type="1"/>
<vehicle id="r36_v_31" type="1"/>
<vehicle id="r36_v_32" type="1"/>
<vehicle id="r36_v_33" type="1"/>
<vehicle id="r36_v_34" type="1"/>
<vehicle id="r36_v_35" type="1"/>
<vehicle id="r36_v_36" type="1"/>
<vehicle id="r36_v_37" type="1"/>
<vehicle id="r36_v_38" type="1"/>
<vehicle id="r36_v_39" type="1"/>
<vehicle id="r36_v_40" type="1"/>
<vehicle id="r36_v_41" type="1"/>


<vehicle id="r35_v_1" type="1"/>
<vehicle id="r35_v_2" type="1"/>
<vehicle id="r35_v_3" type="1"/>
<vehicle id="r35_v_4" type="1"/>
<vehicle id="r35_v_5" type="1"/>
<vehicle id="r35_v_6" type="1"/>
<vehicle id="r35_v_7" type="1"/>
<vehicle id="r35_v_8" type="1"/>
<vehicle id="r35_v_9" type="1"/>
<vehicle id="r35_v_10" type="1"/>
<vehicle id="r35_v_11" type="1"/>
<vehicle id="r35_v_12" type="1"/>
<vehicle id="r35_v_13" type="1"/>
<vehicle id="r35_v_14" type="1"/>
<vehicle id="r35_v_15" type="1"/>
<vehicle id="r35_v_16" type="1"/>
<vehicle id="r35_v_17" type="1"/>
<vehicle id="r35_v_18" type="1"/>


<vehicle id="r32_v_1" type="1"/>
<vehicle id="r32_v_2" type="1"/>
<vehicle id="r32_v_3" type="1"/>
<vehicle id="r32_v_4" type="1"/>
<vehicle id="r32_v_5" type="1"/>
<vehicle id="r32_v_6" type="1"/>
<vehicle id="r32_v_7" type="1"/>
<vehicle id="r32_v_8" type="1"/>
<vehicle id="r32_v_9" type="1"/>
<vehicle id="r32_v_10" type="1"/>
<vehicle id="r32_v_11" type="1"/>
<vehicle id="r32_v_12" type="1"/>
<vehicle id="r32_v_13" type="1"/>
<vehicle id="r32_v_14" type="1"/>
<vehicle id="r32_v_15" type="1"/>
<vehicle id="r32_v_16" type="1"/>
<vehicle id="r32_v_17" type="1"/>
<vehicle id="r32_v_18" type="1"/>
<vehicle id="r32_v_19" type="1"/>
<vehicle id="r32_v_20" type="1"/>
<vehicle id="r32_v_21" type="1"/>
<vehicle id="r32_v_22" type="1"/>